L6/1726520/Trafos.dss
! ==========================================================
! TRANSFORMADORES DE DISTRIBUICAO — gerados de UNTRMT/EQTRMT
! Secundario 1F/2F: 3 enrolamentos com derivacao central
! Neutro no no 4, aterrado em _ATERRAMENTO.dss
! Kv de BT conforme TEN_LIN_SE da BDGD
! ==========================================================
New Transformer.695421931_695421930 phases=1 windings=3 Xhl=4.900 Xht=4.900 Xlt=2.450
~ wdg=1 bus=node_967463979.2 conn=wye Kv=7.9674 Kva=300.0 %R=0.495
~ wdg=2 bus=node_967464900.1.4 conn=wye Kv=0.1100 Kva=300.0 %R=0.495
~ wdg=3 bus=node_967464900.4.2 conn=wye Kv=0.1100 Kva=300.0 %R=0.495
New Transformer.331473210_331764483 phases=3 windings=2 Xhl=4.900
~ wdg=1 bus=node_425078833.1.2.3 conn=delta Kv=13.8 Kva=300.0 %R=0.495
~ wdg=2 bus=node_412987170.1.2.3.4 conn=wye Kv=0.2200 Kva=300.0 %R=0.495
New Transformer.331475128_331574002 phases=3 windings=2 Xhl=3.840
~ wdg=1 bus=node_428340067.1.2.3 conn=delta Kv=13.8 Kva=150.0 %R=0.565
~ wdg=2 bus=node_528220163.1.2.3.4 conn=wye Kv=0.2200 Kva=150.0 %R=0.565
New Transformer.331473589_1898325902 phases=3 windings=2 Xhl=3.840
~ wdg=1 bus=node_430593872.1.2.3 conn=delta Kv=13.8 Kva=150.0 %R=0.565
~ wdg=2 bus=node_2959238620.1.2.3.4 conn=wye Kv=0.2200 Kva=150.0 %R=0.565
New Transformer.331473476_331729876 phases=3 windings=2 Xhl=3.840
~ wdg=1 bus=node_430594582.1.2.3 conn=delta Kv=13.8 Kva=150.0 %R=0.565
~ wdg=2 bus=node_412600925.1.2.3.4 conn=wye Kv=0.2200 Kva=150.0 %R=0.565
New Transformer.331572269_331721025 phases=3 windings=2 Xhl=3.840
~ wdg=1 bus=node_2528191414.1.2.3 conn=delta Kv=13.8 Kva=150.0 %R=0.565
~ wdg=2 bus=node_462239921.1.2.3.4 conn=wye Kv=0.2200 Kva=150.0 %R=0.565
New Transformer.331367121_331777802 phases=3 windings=2 Xhl=3.840
~ wdg=1 bus=node_425507061.1.2.3 conn=delta Kv=13.8 Kva=150.0 %R=0.565
~ wdg=2 bus=node_527839006.1.2.3.4 conn=wye Kv=0.2200 Kva=150.0 %R=0.565
New Transformer.331366301_331730883 phases=3 windings=2 Xhl=3.840
~ wdg=1 bus=node_428341050.1.2.3 conn=delta Kv=13.8 Kva=150.0 %R=0.565
~ wdg=2 bus=node_412191122.1.2.3.4 conn=wye Kv=0.2200 Kva=150.0 %R=0.565
New Transformer.331365149_331763700 phases=3 windings=2 Xhl=3.840
~ wdg=1 bus=node_425347511.1.2.3 conn=delta Kv=13.8 Kva=150.0 %R=0.565
~ wdg=2 bus=node_502235703.1.2.3.4 conn=wye Kv=0.2200 Kva=150.0 %R=0.565
New Transformer.331364399_2703961954 phases=3 windings=2 Xhl=3.840
~ wdg=1 bus=node_445004543.1.2.3 conn=delta Kv=13.8 Kva=150.0 %R=0.565
~ wdg=2 bus=node_412206869.1.2.3.4 conn=wye Kv=0.2200 Kva=150.0 %R=0.565
New Transformer.967734548_967734547 phases=3 windings=2 Xhl=3.840
~ wdg=1 bus=node_1229629977.1.2.3 conn=delta Kv=13.8 Kva=150.0 %R=0.565
~ wdg=2 bus=node_1229629951.1.2.3.4 conn=wye Kv=0.2200 Kva=150.0 %R=0.565
New Transformer.1651429489_1651429488 phases=3 windings=2 Xhl=3.840
~ wdg=1 bus=node_425509086.1.2.3 conn=delta Kv=13.8 Kva=150.0 %R=0.565
~ wdg=2 bus=node_1971787712.1.2.3.4 conn=wye Kv=0.2200 Kva=150.0 %R=0.565
New Transformer.1893319105_1893319104 phases=3 windings=2 Xhl=3.840
~ wdg=1 bus=node_428340382.1.2.3 conn=delta Kv=13.8 Kva=150.0 %R=0.565
~ wdg=2 bus=node_412163468.1.2.3.4 conn=wye Kv=0.2200 Kva=150.0 %R=0.565
New Transformer.1865047488_2635562758 phases=3 windings=2 Xhl=3.840
~ wdg=1 bus=node_2793908302.1.2.3 conn=delta Kv=13.8 Kva=150.0 %R=0.565
~ wdg=2 bus=node_459169793.1.2.3.4 conn=wye Kv=0.2200 Kva=150.0 %R=0.565
New Transformer.1397270759_1397270758 phases=3 windings=2 Xhl=3.840
~ wdg=1 bus=node_427666186.1.2.3 conn=delta Kv=13.8 Kva=150.0 %R=0.565
~ wdg=2 bus=node_2380988795.1.2.3.4 conn=wye Kv=0.2200 Kva=150.0 %R=0.565
New Transformer.331243110_331730870 phases=3 windings=2 Xhl=3.840
~ wdg=1 bus=node_425509156.1.2.3 conn=delta Kv=13.8 Kva=150.0 %R=0.565
~ wdg=2 bus=node_523795542.1.2.3.4 conn=wye Kv=0.2200 Kva=150.0 %R=0.565
New Transformer.915090068_915090067 phases=3 windings=2 Xhl=3.840
~ wdg=1 bus=node_445004473.1.2.3 conn=delta Kv=13.8 Kva=150.0 %R=0.565
~ wdg=2 bus=node_1175688679.1.2.3.4 conn=wye Kv=0.2200 Kva=150.0 %R=0.565
New Transformer.331242636_1129373582 phases=3 windings=2 Xhl=3.840
~ wdg=1 bus=node_445004504.1.2.3 conn=delta Kv=13.8 Kva=150.0 %R=0.565
~ wdg=2 bus=node_460564649.1.2.3.4 conn=wye Kv=0.2200 Kva=150.0 %R=0.565
New Transformer.747095923_1142036780 phases=3 windings=2 Xhl=3.840
~ wdg=1 bus=node_445005411.1.2.3 conn=delta Kv=13.8 Kva=150.0 %R=0.565
~ wdg=2 bus=node_462836221.1.2.3.4 conn=wye Kv=0.2200 Kva=150.0 %R=0.565
New Transformer.885431417_885431416 phases=3 windings=2 Xhl=3.840
~ wdg=1 bus=node_1149838792.1.2.3 conn=delta Kv=13.8 Kva=150.0 %R=0.565
~ wdg=2 bus=node_459911869.1.2.3.4 conn=wye Kv=0.2200 Kva=150.0 %R=0.565
New Transformer.331240893_331764629 phases=3 windings=2 Xhl=3.840
~ wdg=1 bus=node_434921424.1.2.3 conn=delta Kv=13.8 Kva=150.0 %R=0.565
~ wdg=2 bus=node_523796594.1.2.3.4 conn=wye Kv=0.2200 Kva=150.0 %R=0.565
New Transformer.330775219_2706254854 phases=3 windings=2 Xhl=3.840
~ wdg=1 bus=node_425508346.1.2.3 conn=delta Kv=13.8 Kva=150.0 %R=0.565
~ wdg=2 bus=node_412191230.1.2.3.4 conn=wye Kv=0.2200 Kva=150.0 %R=0.565
New Transformer.330773598_993313847 phases=3 windings=2 Xhl=3.840
~ wdg=1 bus=node_425508401.1.2.3 conn=delta Kv=13.8 Kva=150.0 %R=0.565
~ wdg=2 bus=node_412190546.1.2.3.4 conn=wye Kv=0.2200 Kva=150.0 %R=0.565
New Transformer.2349505046_2349505047 phases=3 windings=2 Xhl=3.840
~ wdg=1 bus=node_444952372.1.2.3 conn=delta Kv=13.8 Kva=150.0 %R=0.565
~ wdg=2 bus=node_462938817.1.2.3.4 conn=wye Kv=0.2200 Kva=150.0 %R=0.565
New Transformer.1041449588_1558073866 phases=3 windings=2 Xhl=3.840
~ wdg=1 bus=node_425509256.1.2.3 conn=delta Kv=13.8 Kva=150.0 %R=0.565
~ wdg=2 bus=node_463052966.1.2.3.4 conn=wye Kv=0.2200 Kva=150.0 %R=0.565
New Transformer.1026665464_1026665463 phases=3 windings=2 Xhl=3.840
~ wdg=1 bus=node_1291639599.1.2.3 conn=delta Kv=13.8 Kva=150.0 %R=0.565
~ wdg=2 bus=node_1291639759.1.2.3.4 conn=wye Kv=0.2200 Kva=150.0 %R=0.565
New Transformer.991802445_991802444 phases=3 windings=2 Xhl=3.840
~ wdg=1 bus=node_1254088631.1.2.3 conn=delta Kv=13.8 Kva=150.0 %R=0.565
~ wdg=2 bus=node_459357969.1.2.3.4 conn=wye Kv=0.2200 Kva=150.0 %R=0.565
New Transformer.330772657_331778824 phases=3 windings=2 Xhl=3.840
~ wdg=1 bus=node_428339949.1.2.3 conn=delta Kv=13.8 Kva=112.5 %R=0.565
~ wdg=2 bus=node_412163672.1.2.3.4 conn=wye Kv=0.2200 Kva=112.5 %R=0.565
New Transformer.331239903_331572721 phases=3 windings=2 Xhl=3.840
~ wdg=1 bus=node_444951993.1.2.3 conn=delta Kv=13.8 Kva=112.5 %R=0.565
~ wdg=2 bus=node_412193228.1.2.3.4 conn=wye Kv=0.2200 Kva=112.5 %R=0.565
New Transformer.331241660_331572756 phases=3 windings=2 Xhl=3.840
~ wdg=1 bus=node_425507451.1.2.3 conn=delta Kv=13.8 Kva=112.5 %R=0.565
~ wdg=2 bus=node_412207355.1.2.3.4 conn=wye Kv=0.2200 Kva=112.5 %R=0.565
New Transformer.331242614_331730554 phases=3 windings=2 Xhl=3.840
~ wdg=1 bus=node_425346846.1.2.3 conn=delta Kv=13.8 Kva=112.5 %R=0.565
~ wdg=2 bus=node_486086702.1.2.3.4 conn=wye Kv=0.2200 Kva=112.5 %R=0.565
New Transformer.331364065_331765616 phases=3 windings=2 Xhl=3.840
~ wdg=1 bus=node_425509620.1.2.3 conn=delta Kv=13.8 Kva=112.5 %R=0.565
~ wdg=2 bus=node_412193738.1.2.3.4 conn=wye Kv=0.2200 Kva=112.5 %R=0.565
New Transformer.331366432_331730753 phases=3 windings=2 Xhl=3.840
~ wdg=1 bus=node_424517078.1.2.3 conn=delta Kv=13.8 Kva=112.5 %R=0.565
~ wdg=2 bus=node_412209353.1.2.3.4 conn=wye Kv=0.2200 Kva=112.5 %R=0.565
New Transformer.331571572_331723344 phases=3 windings=2 Xhl=3.840
~ wdg=1 bus=node_439879159.1.2.3 conn=delta Kv=13.8 Kva=112.5 %R=0.565
~ wdg=2 bus=node_412191029.1.2.3.4 conn=wye Kv=0.2200 Kva=112.5 %R=0.565
New Transformer.331473073_331778739 phases=3 windings=2 Xhl=3.840
~ wdg=1 bus=node_2724899700.1.2.3 conn=delta Kv=13.8 Kva=112.5 %R=0.565
~ wdg=2 bus=node_2724899746.1.2.3.4 conn=wye Kv=0.2200 Kva=112.5 %R=0.565
New Transformer.331475031_331776460 phases=3 windings=2 Xhl=3.840
~ wdg=1 bus=node_425507201.1.2.3 conn=delta Kv=13.8 Kva=112.5 %R=0.565
~ wdg=2 bus=node_412191068.1.2.3.4 conn=wye Kv=0.2200 Kva=112.5 %R=0.565
New Transformer.326384369_326746249 phases=3 windings=2 Xhl=3.770
~ wdg=1 bus=node_425368609.1.2.3 conn=delta Kv=13.8 Kva=75.0 %R=0.670
~ wdg=2 bus=node_410081416.1.2.3.4 conn=wye Kv=0.2200 Kva=75.0 %R=0.670
New Transformer.326384320_2644479456 phases=3 windings=2 Xhl=3.770
~ wdg=1 bus=node_428105651.1.2.3 conn=delta Kv=13.8 Kva=75.0 %R=0.670
~ wdg=2 bus=node_410185058.1.2.3.4 conn=wye Kv=0.2200 Kva=75.0 %R=0.670
New Transformer.326385470_326723756 phases=3 windings=2 Xhl=3.770
~ wdg=1 bus=node_425501973.1.2.3 conn=delta Kv=13.8 Kva=75.0 %R=0.670
~ wdg=2 bus=node_410081374.1.2.3.4 conn=wye Kv=0.2200 Kva=75.0 %R=0.670
New Transformer.2146544898_2146544899 phases=3 windings=2 Xhl=3.770
~ wdg=1 bus=node_2456644664.1.2.3 conn=delta Kv=13.8 Kva=75.0 %R=0.670
~ wdg=2 bus=node_459801090.1.2.3.4 conn=wye Kv=0.2200 Kva=75.0 %R=0.670
New Transformer.2200365850_2200365849 phases=3 windings=2 Xhl=3.770
~ wdg=1 bus=node_2506004196.1.2.3 conn=delta Kv=13.8 Kva=75.0 %R=0.670
~ wdg=2 bus=node_2506004187.1.2.3.4 conn=wye Kv=0.2200 Kva=75.0 %R=0.670
New Transformer.2214912138_2214912147 phases=3 windings=2 Xhl=3.770
~ wdg=1 bus=node_2524532990.1.2.3 conn=delta Kv=13.8 Kva=75.0 %R=0.670
~ wdg=2 bus=node_2524532993.1.2.3.4 conn=wye Kv=0.2200 Kva=75.0 %R=0.670
New Transformer.2214911337_2214911356 phases=3 windings=2 Xhl=3.770
~ wdg=1 bus=node_2520233244.1.2.3 conn=delta Kv=13.8 Kva=75.0 %R=0.670
~ wdg=2 bus=node_2520233239.1.2.3.4 conn=wye Kv=0.2200 Kva=75.0 %R=0.670
New Transformer.2214910198_2214910199 phases=3 windings=2 Xhl=3.770
~ wdg=1 bus=node_2520231113.1.2.3 conn=delta Kv=13.8 Kva=75.0 %R=0.670
~ wdg=2 bus=node_2520230525.1.2.3.4 conn=wye Kv=0.2200 Kva=75.0 %R=0.670
New Transformer.2214910705_2214910706 phases=3 windings=2 Xhl=3.770
~ wdg=1 bus=node_2520231564.1.2.3 conn=delta Kv=13.8 Kva=75.0 %R=0.670
~ wdg=2 bus=node_2520230905.1.2.3.4 conn=wye Kv=0.2200 Kva=75.0 %R=0.670
New Transformer.2214910777_2214910795 phases=3 windings=2 Xhl=3.770
~ wdg=1 bus=node_2520232268.1.2.3 conn=delta Kv=13.8 Kva=75.0 %R=0.670
~ wdg=2 bus=node_2520232248.1.2.3.4 conn=wye Kv=0.2200 Kva=75.0 %R=0.670
New Transformer.2214911020_2214911039 phases=3 windings=2 Xhl=3.770
~ wdg=1 bus=node_2520232611.1.2.3 conn=delta Kv=13.8 Kva=75.0 %R=0.670
~ wdg=2 bus=node_2520232607.1.2.3.4 conn=wye Kv=0.2200 Kva=75.0 %R=0.670
New Transformer.1045478065_1045478066 phases=3 windings=2 Xhl=3.770
~ wdg=1 bus=node_1312096866.1.2.3 conn=delta Kv=13.8 Kva=75.0 %R=0.670
~ wdg=2 bus=node_1312096405.1.2.3.4 conn=wye Kv=0.2200 Kva=75.0 %R=0.670
New Transformer.1048398218_2198643964 phases=3 windings=2 Xhl=3.770
~ wdg=1 bus=node_1315013012.1.2.3 conn=delta Kv=13.8 Kva=75.0 %R=0.670
~ wdg=2 bus=node_1315012627.1.2.3.4 conn=wye Kv=0.2200 Kva=75.0 %R=0.670
New Transformer.1048398244_1048398243 phases=3 windings=2 Xhl=3.770
~ wdg=1 bus=node_1315013072.1.2.3 conn=delta Kv=13.8 Kva=75.0 %R=0.670
~ wdg=2 bus=node_1315012406.1.2.3.4 conn=wye Kv=0.2200 Kva=75.0 %R=0.670
New Transformer.1048398261_1048398260 phases=3 windings=2 Xhl=3.770
~ wdg=1 bus=node_1315013100.1.2.3 conn=delta Kv=13.8 Kva=75.0 %R=0.670
~ wdg=2 bus=node_1315012228.1.2.3.4 conn=wye Kv=0.2200 Kva=75.0 %R=0.670
New Transformer.325956740_326723896 phases=3 windings=2 Xhl=3.770
~ wdg=1 bus=node_429735508.1.2.3 conn=delta Kv=13.8 Kva=75.0 %R=0.670
~ wdg=2 bus=node_408269574.1.2.3.4 conn=wye Kv=0.2200 Kva=75.0 %R=0.670
New Transformer.1068047136_1068047137 phases=3 windings=2 Xhl=3.770
~ wdg=1 bus=node_1335143302.1.2.3 conn=delta Kv=13.8 Kva=75.0 %R=0.670
~ wdg=2 bus=node_1335144588.1.2.3.4 conn=wye Kv=0.2200 Kva=75.0 %R=0.670
New Transformer.325523321_2199172144 phases=3 windings=2 Xhl=3.770
~ wdg=1 bus=node_425504437.1.2.3 conn=delta Kv=13.8 Kva=75.0 %R=0.670
~ wdg=2 bus=node_410081377.1.2.3.4 conn=wye Kv=0.2200 Kva=75.0 %R=0.670
New Transformer.1077630843_1077630842 phases=3 windings=2 Xhl=3.770
~ wdg=1 bus=node_424517355.1.2.3 conn=delta Kv=13.8 Kva=75.0 %R=0.670
~ wdg=2 bus=node_460313407.1.2.3.4 conn=wye Kv=0.2200 Kva=75.0 %R=0.670
New Transformer.2366109981_2366109982 phases=3 windings=2 Xhl=3.770
~ wdg=1 bus=node_425078792.1.2.3 conn=delta Kv=13.8 Kva=75.0 %R=0.670
~ wdg=2 bus=node_459261041.1.2.3.4 conn=wye Kv=0.2200 Kva=75.0 %R=0.670
New Transformer.330773688_331778801 phases=3 windings=2 Xhl=3.770
~ wdg=1 bus=node_445004754.1.2.3 conn=delta Kv=13.8 Kva=75.0 %R=0.670
~ wdg=2 bus=node_412206863.1.2.3.4 conn=wye Kv=0.2200 Kva=75.0 %R=0.670
New Transformer.330773329_2651527871 phases=3 windings=2 Xhl=3.770
~ wdg=1 bus=node_440065294.1.2.3 conn=delta Kv=13.8 Kva=75.0 %R=0.670
~ wdg=2 bus=node_412207103.1.2.3.4 conn=wye Kv=0.2200 Kva=75.0 %R=0.670
New Transformer.330773282_331732173 phases=3 windings=2 Xhl=3.770
~ wdg=1 bus=node_440066035.1.2.3 conn=delta Kv=13.8 Kva=75.0 %R=0.670
~ wdg=2 bus=node_412353482.1.2.3.4 conn=wye Kv=0.2200 Kva=75.0 %R=0.670
New Transformer.2408208380_2408208381 phases=3 windings=2 Xhl=3.770
~ wdg=1 bus=node_2592923413.1.2.3 conn=delta Kv=13.8 Kva=75.0 %R=0.670
~ wdg=2 bus=node_2592923405.1.2.3.4 conn=wye Kv=0.2200 Kva=75.0 %R=0.670
New Transformer.330773376_331778734 phases=3 windings=2 Xhl=3.770
~ wdg=1 bus=node_445006002.1.2.3 conn=delta Kv=13.8 Kva=75.0 %R=0.670
~ wdg=2 bus=node_412190237.1.2.3.4 conn=wye Kv=0.2200 Kva=75.0 %R=0.670
New Transformer.330773107_1913432167 phases=3 windings=2 Xhl=3.770
~ wdg=1 bus=node_430593777.1.2.3 conn=delta Kv=13.8 Kva=75.0 %R=0.670
~ wdg=2 bus=node_412850729.1.2.3.4 conn=wye Kv=0.2200 Kva=75.0 %R=0.670
New Transformer.330772805_331732239 phases=3 windings=2 Xhl=3.770
~ wdg=1 bus=node_434921999.1.2.3 conn=delta Kv=13.8 Kva=75.0 %R=0.670
~ wdg=2 bus=node_412190438.1.2.3.4 conn=wye Kv=0.2200 Kva=75.0 %R=0.670
New Transformer.330772578_1353258404 phases=3 windings=2 Xhl=3.770
~ wdg=1 bus=node_439483374.1.2.3 conn=delta Kv=13.8 Kva=75.0 %R=0.670
~ wdg=2 bus=node_408341412.1.2.3.4 conn=wye Kv=0.2200 Kva=75.0 %R=0.670
New Transformer.330774133_331572757 phases=3 windings=2 Xhl=3.770
~ wdg=1 bus=node_439879748.1.2.3 conn=delta Kv=13.8 Kva=75.0 %R=0.670
~ wdg=2 bus=node_412208381.1.2.3.4 conn=wye Kv=0.2200 Kva=75.0 %R=0.670
New Transformer.330774332_331721602 phases=3 windings=2 Xhl=3.770
~ wdg=1 bus=node_425201932.1.2.3 conn=delta Kv=13.8 Kva=75.0 %R=0.670
~ wdg=2 bus=node_412373789.1.2.3.4 conn=wye Kv=0.2200 Kva=75.0 %R=0.670
New Transformer.1123389207_1123389206 phases=3 windings=2 Xhl=3.770
~ wdg=1 bus=node_1392661672.1.2.3 conn=delta Kv=13.8 Kva=75.0 %R=0.670
~ wdg=2 bus=node_1392661627.1.2.3.4 conn=wye Kv=0.2200 Kva=75.0 %R=0.670
New Transformer.1123389346_1123389345 phases=3 windings=2 Xhl=3.770
~ wdg=1 bus=node_1392662718.1.2.3 conn=delta Kv=13.8 Kva=75.0 %R=0.670
~ wdg=2 bus=node_1392663326.1.2.3.4 conn=wye Kv=0.2200 Kva=75.0 %R=0.670
New Transformer.1123389384_1123389383 phases=3 windings=2 Xhl=3.770
~ wdg=1 bus=node_1392662089.1.2.3 conn=delta Kv=13.8 Kva=75.0 %R=0.670
~ wdg=2 bus=node_1392662076.1.2.3.4 conn=wye Kv=0.2200 Kva=75.0 %R=0.670
New Transformer.330774609_2246157061 phases=3 windings=2 Xhl=3.770
~ wdg=1 bus=node_2532511101.1.2.3 conn=delta Kv=13.8 Kva=75.0 %R=0.670
~ wdg=2 bus=node_2532511091.1.2.3.4 conn=wye Kv=0.2200 Kva=75.0 %R=0.670
New Transformer.330774440_2614698239 phases=3 windings=2 Xhl=3.770
~ wdg=1 bus=node_425078682.1.2.3 conn=delta Kv=13.8 Kva=75.0 %R=0.670
~ wdg=2 bus=node_412313649.1.2.3.4 conn=wye Kv=0.2200 Kva=75.0 %R=0.670
New Transformer.330774365_331729022 phases=3 windings=2 Xhl=3.770
~ wdg=1 bus=node_434922064.1.2.3 conn=delta Kv=13.8 Kva=75.0 %R=0.670
~ wdg=2 bus=node_520646333.1.2.3.4 conn=wye Kv=0.2200 Kva=75.0 %R=0.670
New Transformer.330773893_917116989 phases=3 windings=2 Xhl=3.770
~ wdg=1 bus=node_425202757.1.2.3 conn=delta Kv=13.8 Kva=75.0 %R=0.670
~ wdg=2 bus=node_412190882.1.2.3.4 conn=wye Kv=0.2200 Kva=75.0 %R=0.670
New Transformer.330773703_1391058670 phases=3 windings=2 Xhl=3.770
~ wdg=1 bus=node_425346901.1.2.3 conn=delta Kv=13.8 Kva=75.0 %R=0.670
~ wdg=2 bus=node_412207970.1.2.3.4 conn=wye Kv=0.2200 Kva=75.0 %R=0.670
New Transformer.330774801_331765626 phases=3 windings=2 Xhl=3.770
~ wdg=1 bus=node_444952242.1.2.3 conn=delta Kv=13.8 Kva=75.0 %R=0.670
~ wdg=2 bus=node_412190408.1.2.3.4 conn=wye Kv=0.2200 Kva=75.0 %R=0.670
New Transformer.1123903097_1123903096 phases=3 windings=2 Xhl=3.770
~ wdg=1 bus=node_1393137076.1.2.3 conn=delta Kv=13.8 Kva=75.0 %R=0.670
~ wdg=2 bus=node_1393137062.1.2.3.4 conn=wye Kv=0.2200 Kva=75.0 %R=0.670
New Transformer.331239449_331721995 phases=3 windings=2 Xhl=3.770
~ wdg=1 bus=node_425677445.1.2.3 conn=delta Kv=13.8 Kva=75.0 %R=0.670
~ wdg=2 bus=node_412193834.1.2.3.4 conn=wye Kv=0.2200 Kva=75.0 %R=0.670
New Transformer.331240057_331572729 phases=3 windings=2 Xhl=3.770
~ wdg=1 bus=node_425506453.1.2.3 conn=delta Kv=13.8 Kva=75.0 %R=0.670
~ wdg=2 bus=node_412189796.1.2.3.4 conn=wye Kv=0.2200 Kva=75.0 %R=0.670
New Transformer.331239686_331776452 phases=3 windings=2 Xhl=3.770
~ wdg=1 bus=node_425508255.1.2.3 conn=delta Kv=13.8 Kva=75.0 %R=0.670
~ wdg=2 bus=node_412192154.1.2.3.4 conn=wye Kv=0.2200 Kva=75.0 %R=0.670
New Transformer.331239526_331730845 phases=3 windings=2 Xhl=3.770
~ wdg=1 bus=node_445005152.1.2.3 conn=delta Kv=13.8 Kva=75.0 %R=0.670
~ wdg=2 bus=node_486460781.1.2.3.4 conn=wye Kv=0.2200 Kva=75.0 %R=0.670
New Transformer.331239527_331721950 phases=3 windings=2 Xhl=3.770
~ wdg=1 bus=node_425507675.1.2.3 conn=delta Kv=13.8 Kva=75.0 %R=0.670
~ wdg=2 bus=node_412190540.1.2.3.4 conn=wye Kv=0.2200 Kva=75.0 %R=0.670
New Transformer.331239902_331776454 phases=3 windings=2 Xhl=3.770
~ wdg=1 bus=node_425507211.1.2.3 conn=delta Kv=13.8 Kva=75.0 %R=0.670
~ wdg=2 bus=node_412191992.1.2.3.4 conn=wye Kv=0.2200 Kva=75.0 %R=0.670
New Transformer.331239940_1788923354 phases=3 windings=2 Xhl=3.770
~ wdg=1 bus=node_425201882.1.2.3 conn=delta Kv=13.8 Kva=75.0 %R=0.670
~ wdg=2 bus=node_412190852.1.2.3.4 conn=wye Kv=0.2200 Kva=75.0 %R=0.670
New Transformer.330775141_331572759 phases=3 windings=2 Xhl=3.770
~ wdg=1 bus=node_425678231.1.2.3 conn=delta Kv=13.8 Kva=75.0 %R=0.670
~ wdg=2 bus=node_486705236.1.2.3.4 conn=wye Kv=0.2200 Kva=75.0 %R=0.670
New Transformer.330775087_331729787 phases=3 windings=2 Xhl=3.770
~ wdg=1 bus=node_425204479.1.2.3 conn=delta Kv=13.8 Kva=75.0 %R=0.670
~ wdg=2 bus=node_501340326.1.2.3.4 conn=wye Kv=0.2200 Kva=75.0 %R=0.670
New Transformer.331239610_331721969 phases=3 windings=2 Xhl=3.770
~ wdg=1 bus=node_444952791.1.2.3 conn=delta Kv=13.8 Kva=75.0 %R=0.670
~ wdg=2 bus=node_412207184.1.2.3.4 conn=wye Kv=0.2200 Kva=75.0 %R=0.670
New Transformer.331239866_331732150 phases=3 windings=2 Xhl=3.770
~ wdg=1 bus=node_425201443.1.2.3 conn=delta Kv=13.8 Kva=75.0 %R=0.670
~ wdg=2 bus=node_412333117.1.2.3.4 conn=wye Kv=0.2200 Kva=75.0 %R=0.670
New Transformer.331239429_331721951 phases=3 windings=2 Xhl=3.770
~ wdg=1 bus=node_444952840.1.2.3 conn=delta Kv=13.8 Kva=75.0 %R=0.670
~ wdg=2 bus=node_412373792.1.2.3.4 conn=wye Kv=0.2200 Kva=75.0 %R=0.670
New Transformer.330775083_331723351 phases=3 windings=2 Xhl=3.770
~ wdg=1 bus=node_425506926.1.2.3 conn=delta Kv=13.8 Kva=75.0 %R=0.670
~ wdg=2 bus=node_412191854.1.2.3.4 conn=wye Kv=0.2200 Kva=75.0 %R=0.670
New Transformer.331240654_331765527 phases=3 windings=2 Xhl=3.770
~ wdg=1 bus=node_425347555.1.2.3 conn=delta Kv=13.8 Kva=75.0 %R=0.670
~ wdg=2 bus=node_412191311.1.2.3.4 conn=wye Kv=0.2200 Kva=75.0 %R=0.670
New Transformer.331240279_331778790 phases=3 windings=2 Xhl=3.770
~ wdg=1 bus=node_425677520.1.2.3 conn=delta Kv=13.8 Kva=75.0 %R=0.670
~ wdg=2 bus=node_412206953.1.2.3.4 conn=wye Kv=0.2200 Kva=75.0 %R=0.670
New Transformer.331240101_1490404460 phases=3 windings=2 Xhl=3.770
~ wdg=1 bus=node_425080087.1.2.3 conn=delta Kv=13.8 Kva=75.0 %R=0.670
~ wdg=2 bus=node_413011190.1.2.3.4 conn=wye Kv=0.2200 Kva=75.0 %R=0.670
New Transformer.331241072_331764393 phases=3 windings=2 Xhl=3.770
~ wdg=1 bus=node_440063980.1.2.3 conn=delta Kv=13.8 Kva=75.0 %R=0.670
~ wdg=2 bus=node_412373768.1.2.3.4 conn=wye Kv=0.2200 Kva=75.0 %R=0.670
New Transformer.331241383_331763686 phases=3 windings=2 Xhl=3.770
~ wdg=1 bus=node_436150078.1.2.3 conn=delta Kv=13.8 Kva=75.0 %R=0.670
~ wdg=2 bus=node_410083750.1.2.3.4 conn=wye Kv=0.2200 Kva=75.0 %R=0.670
New Transformer.331241031_331721970 phases=3 windings=2 Xhl=3.770
~ wdg=1 bus=node_435143476.1.2.3 conn=delta Kv=13.8 Kva=75.0 %R=0.670
~ wdg=2 bus=node_412193111.1.2.3.4 conn=wye Kv=0.2200 Kva=75.0 %R=0.670
New Transformer.331241565_331721972 phases=3 windings=2 Xhl=3.770
~ wdg=1 bus=node_445004638.1.2.3 conn=delta Kv=13.8 Kva=75.0 %R=0.670
~ wdg=2 bus=node_412207508.1.2.3.4 conn=wye Kv=0.2200 Kva=75.0 %R=0.670
New Transformer.331241824_331723255 phases=3 windings=2 Xhl=3.770
~ wdg=1 bus=node_425204098.1.2.3 conn=delta Kv=13.8 Kva=75.0 %R=0.670
~ wdg=2 bus=node_412208327.1.2.3.4 conn=wye Kv=0.2200 Kva=75.0 %R=0.670
New Transformer.331241827_2063619108 phases=3 windings=2 Xhl=3.770
~ wdg=1 bus=node_428342604.1.2.3 conn=delta Kv=13.8 Kva=75.0 %R=0.670
~ wdg=2 bus=node_408668543.1.2.3.4 conn=wye Kv=0.2200 Kva=75.0 %R=0.670
New Transformer.331241594_331776183 phases=3 windings=2 Xhl=3.770
~ wdg=1 bus=node_425678311.1.2.3 conn=delta Kv=13.8 Kva=75.0 %R=0.670
~ wdg=2 bus=node_412850618.1.2.3.4 conn=wye Kv=0.2200 Kva=75.0 %R=0.670
New Transformer.331241541_331721909 phases=3 windings=2 Xhl=3.770
~ wdg=1 bus=node_428541508.1.2.3 conn=delta Kv=13.8 Kva=75.0 %R=0.670
~ wdg=2 bus=node_412190738.1.2.3.4 conn=wye Kv=0.2200 Kva=75.0 %R=0.670
New Transformer.331242799_331732353 phases=3 windings=2 Xhl=3.770
~ wdg=1 bus=node_425348875.1.2.3 conn=delta Kv=13.8 Kva=75.0 %R=0.670
~ wdg=2 bus=node_412229625.1.2.3.4 conn=wye Kv=0.2200 Kva=75.0 %R=0.670
New Transformer.331242376_331729739 phases=3 windings=2 Xhl=3.770
~ wdg=1 bus=node_425677425.1.2.3 conn=delta Kv=13.8 Kva=75.0 %R=0.670
~ wdg=2 bus=node_412988118.1.2.3.4 conn=wye Kv=0.2200 Kva=75.0 %R=0.670
New Transformer.331242170_2298148803 phases=3 windings=2 Xhl=3.770
~ wdg=1 bus=node_439482829.1.2.3 conn=delta Kv=13.8 Kva=75.0 %R=0.670
~ wdg=2 bus=node_408341613.1.2.3.4 conn=wye Kv=0.2200 Kva=75.0 %R=0.670
New Transformer.482353609_743699330 phases=3 windings=2 Xhl=3.770
~ wdg=1 bus=node_2714464193.1.2.3 conn=delta Kv=13.8 Kva=75.0 %R=0.670
~ wdg=2 bus=node_2808761983.1.2.3.4 conn=wye Kv=0.2200 Kva=75.0 %R=0.670
New Transformer.1405323510_1405323509 phases=3 windings=2 Xhl=3.770
~ wdg=1 bus=node_1701407875.1.2.3 conn=delta Kv=13.8 Kva=75.0 %R=0.670
~ wdg=2 bus=node_1701407787.1.2.3.4 conn=wye Kv=0.2200 Kva=75.0 %R=0.670
New Transformer.1336696683_1473550926 phases=3 windings=2 Xhl=3.770
~ wdg=1 bus=node_1410695937.1.2.3 conn=delta Kv=13.8 Kva=75.0 %R=0.670
~ wdg=2 bus=node_1632227009.1.2.3.4 conn=wye Kv=0.2200 Kva=75.0 %R=0.670
New Transformer.1346482615_1346482614 phases=3 windings=2 Xhl=3.770
~ wdg=1 bus=node_1640711938.1.2.3 conn=delta Kv=13.8 Kva=75.0 %R=0.670
~ wdg=2 bus=node_412354136.1.2.3.4 conn=wye Kv=0.2200 Kva=75.0 %R=0.670
New Transformer.331243411_331730757 phases=3 windings=2 Xhl=3.770
~ wdg=1 bus=node_440064765.1.2.3 conn=delta Kv=13.8 Kva=75.0 %R=0.670
~ wdg=2 bus=node_412209332.1.2.3.4 conn=wye Kv=0.2200 Kva=75.0 %R=0.670
New Transformer.1440173958_1473550993 phases=3 windings=2 Xhl=3.770
~ wdg=1 bus=node_1410696155.1.2.3 conn=delta Kv=13.8 Kva=75.0 %R=0.670
~ wdg=2 bus=node_1736417570.1.2.3.4 conn=wye Kv=0.2200 Kva=75.0 %R=0.670
New Transformer.976077950_976077949 phases=3 windings=2 Xhl=3.770
~ wdg=1 bus=node_2473386157.1.2.3 conn=delta Kv=13.8 Kva=75.0 %R=0.670
~ wdg=2 bus=node_2473386144.1.2.3.4 conn=wye Kv=0.2200 Kva=75.0 %R=0.670
New Transformer.331363820_331766893 phases=3 windings=2 Xhl=3.770
~ wdg=1 bus=node_435142092.1.2.3 conn=delta Kv=13.8 Kva=75.0 %R=0.670
~ wdg=2 bus=node_412909016.1.2.3.4 conn=wye Kv=0.2200 Kva=75.0 %R=0.670
New Transformer.331363824_331720102 phases=3 windings=2 Xhl=3.770
~ wdg=1 bus=node_435142926.1.2.3 conn=delta Kv=13.8 Kva=75.0 %R=0.670
~ wdg=2 bus=node_412909892.1.2.3.4 conn=wye Kv=0.2200 Kva=75.0 %R=0.670
New Transformer.331363831_331763669 phases=3 windings=2 Xhl=3.770
~ wdg=1 bus=node_428339944.1.2.3 conn=delta Kv=13.8 Kva=75.0 %R=0.670
~ wdg=2 bus=node_412986639.1.2.3.4 conn=wye Kv=0.2200 Kva=75.0 %R=0.670
New Transformer.331363844_331720820 phases=3 windings=2 Xhl=3.770
~ wdg=1 bus=node_425677960.1.2.3 conn=delta Kv=13.8 Kva=75.0 %R=0.670
~ wdg=2 bus=node_413009909.1.2.3.4 conn=wye Kv=0.2200 Kva=75.0 %R=0.670
New Transformer.331363845_331730841 phases=3 windings=2 Xhl=3.770
~ wdg=1 bus=node_425506911.1.2.3 conn=delta Kv=13.8 Kva=75.0 %R=0.670
~ wdg=2 bus=node_412163657.1.2.3.4 conn=wye Kv=0.2200 Kva=75.0 %R=0.670
New Transformer.331243316_331732286 phases=3 windings=2 Xhl=3.770
~ wdg=1 bus=node_425678306.1.2.3 conn=delta Kv=13.8 Kva=75.0 %R=0.670
~ wdg=2 bus=node_412191863.1.2.3.4 conn=wye Kv=0.2200 Kva=75.0 %R=0.670
New Transformer.331364428_331763698 phases=3 windings=2 Xhl=3.770
~ wdg=1 bus=node_444884037.1.2.3 conn=delta Kv=13.8 Kva=75.0 %R=0.670
~ wdg=2 bus=node_412942221.1.2.3.4 conn=wye Kv=0.2200 Kva=75.0 %R=0.670
New Transformer.1372066199_1372066198 phases=3 windings=2 Xhl=3.770
~ wdg=1 bus=node_1666660378.1.2.3 conn=delta Kv=13.8 Kva=75.0 %R=0.670
~ wdg=2 bus=node_1666660360.1.2.3.4 conn=wye Kv=0.2200 Kva=75.0 %R=0.670
New Transformer.331364004_331723363 phases=3 windings=2 Xhl=3.770
~ wdg=1 bus=node_425678451.1.2.3 conn=delta Kv=13.8 Kva=75.0 %R=0.670
~ wdg=2 bus=node_412207088.1.2.3.4 conn=wye Kv=0.2200 Kva=75.0 %R=0.670
New Transformer.331364043_331778727 phases=3 windings=2 Xhl=3.770
~ wdg=1 bus=node_425349455.1.2.3 conn=delta Kv=13.8 Kva=75.0 %R=0.670
~ wdg=2 bus=node_412162919.1.2.3.4 conn=wye Kv=0.2200 Kva=75.0 %R=0.670
New Transformer.331364556_331778696 phases=3 windings=2 Xhl=3.770
~ wdg=1 bus=node_440225613.1.2.3 conn=delta Kv=13.8 Kva=75.0 %R=0.670
~ wdg=2 bus=node_412208972.1.2.3.4 conn=wye Kv=0.2200 Kva=75.0 %R=0.670
New Transformer.331365554_331775981 phases=3 windings=2 Xhl=3.770
~ wdg=1 bus=node_439484654.1.2.3 conn=delta Kv=13.8 Kva=75.0 %R=0.670
~ wdg=2 bus=node_409128079.1.2.3.4 conn=wye Kv=0.2200 Kva=75.0 %R=0.670
New Transformer.331365096_331729851 phases=3 windings=2 Xhl=3.770
~ wdg=1 bus=node_435141907.1.2.3 conn=delta Kv=13.8 Kva=75.0 %R=0.670
~ wdg=2 bus=node_412985889.1.2.3.4 conn=wye Kv=0.2200 Kva=75.0 %R=0.670
New Transformer.331364733_331776546 phases=3 windings=2 Xhl=3.770
~ wdg=1 bus=node_428342768.1.2.3 conn=delta Kv=13.8 Kva=75.0 %R=0.670
~ wdg=2 bus=node_408342048.1.2.3.4 conn=wye Kv=0.2200 Kva=75.0 %R=0.670
New Transformer.331364761_1060890292 phases=3 windings=2 Xhl=3.770
~ wdg=1 bus=node_425678726.1.2.3 conn=delta Kv=13.8 Kva=75.0 %R=0.670
~ wdg=2 bus=node_412193822.1.2.3.4 conn=wye Kv=0.2200 Kva=75.0 %R=0.670
New Transformer.331364878_331776513 phases=3 windings=2 Xhl=3.770
~ wdg=1 bus=node_425202152.1.2.3 conn=delta Kv=13.8 Kva=75.0 %R=0.670
~ wdg=2 bus=node_412192991.1.2.3.4 conn=wye Kv=0.2200 Kva=75.0 %R=0.670
New Transformer.331365263_331723371 phases=3 windings=2 Xhl=3.770
~ wdg=1 bus=node_425677377.1.2.3 conn=delta Kv=13.8 Kva=75.0 %R=0.670
~ wdg=2 bus=node_412193780.1.2.3.4 conn=wye Kv=0.2200 Kva=75.0 %R=0.670
New Transformer.331365274_331721898 phases=3 windings=2 Xhl=3.770
~ wdg=1 bus=node_439145347.1.2.3 conn=delta Kv=13.8 Kva=75.0 %R=0.670
~ wdg=2 bus=node_412162856.1.2.3.4 conn=wye Kv=0.2200 Kva=75.0 %R=0.670
New Transformer.331365215_331572527 phases=3 windings=2 Xhl=3.770
~ wdg=1 bus=node_439877514.1.2.3 conn=delta Kv=13.8 Kva=75.0 %R=0.670
~ wdg=2 bus=node_412354142.1.2.3.4 conn=wye Kv=0.2200 Kva=75.0 %R=0.670
New Transformer.516825847_516825846 phases=3 windings=2 Xhl=3.770
~ wdg=1 bus=node_425508125.1.2.3 conn=delta Kv=13.8 Kva=75.0 %R=0.670
~ wdg=2 bus=node_465765362.1.2.3.4 conn=wye Kv=0.2200 Kva=75.0 %R=0.670
New Transformer.331365367_331721979 phases=3 windings=2 Xhl=3.770
~ wdg=1 bus=node_445004418.1.2.3 conn=delta Kv=13.8 Kva=75.0 %R=0.670
~ wdg=2 bus=node_412191920.1.2.3.4 conn=wye Kv=0.2200 Kva=75.0 %R=0.670
New Transformer.331365337_331730879 phases=3 windings=2 Xhl=3.770
~ wdg=1 bus=node_440062021.1.2.3 conn=delta Kv=13.8 Kva=75.0 %R=0.670
~ wdg=2 bus=node_412191113.1.2.3.4 conn=wye Kv=0.2200 Kva=75.0 %R=0.670
New Transformer.1496181379_1496181378 phases=3 windings=2 Xhl=3.770
~ wdg=1 bus=node_1803962566.1.2.3 conn=delta Kv=13.8 Kva=75.0 %R=0.670
~ wdg=2 bus=node_1803962615.1.2.3.4 conn=wye Kv=0.2200 Kva=75.0 %R=0.670
New Transformer.1496181536_1496181535 phases=3 windings=2 Xhl=3.770
~ wdg=1 bus=node_1803962469.1.2.3 conn=delta Kv=13.8 Kva=75.0 %R=0.670
~ wdg=2 bus=node_1803962493.1.2.3.4 conn=wye Kv=0.2200 Kva=75.0 %R=0.670
New Transformer.331365548_331732299 phases=3 windings=2 Xhl=3.770
~ wdg=1 bus=node_425677475.1.2.3 conn=delta Kv=13.8 Kva=75.0 %R=0.670
~ wdg=2 bus=node_412207697.1.2.3.4 conn=wye Kv=0.2200 Kva=75.0 %R=0.670
New Transformer.331365787_331723369 phases=3 windings=2 Xhl=3.770
~ wdg=1 bus=node_435143170.1.2.3 conn=delta Kv=13.8 Kva=75.0 %R=0.670
~ wdg=2 bus=node_412193666.1.2.3.4 conn=wye Kv=0.2200 Kva=75.0 %R=0.670
New Transformer.331365862_497322492 phases=3 windings=2 Xhl=3.770
~ wdg=1 bus=node_425202142.1.2.3 conn=delta Kv=13.8 Kva=75.0 %R=0.670
~ wdg=2 bus=node_412191245.1.2.3.4 conn=wye Kv=0.2200 Kva=75.0 %R=0.670
New Transformer.331366419_331732312 phases=3 windings=2 Xhl=3.770
~ wdg=1 bus=node_444952486.1.2.3 conn=delta Kv=13.8 Kva=75.0 %R=0.670
~ wdg=2 bus=node_412193066.1.2.3.4 conn=wye Kv=0.2200 Kva=75.0 %R=0.670
New Transformer.331366269_331777816 phases=3 windings=2 Xhl=3.770
~ wdg=1 bus=node_435142870.1.2.3 conn=delta Kv=13.8 Kva=75.0 %R=0.670
~ wdg=2 bus=node_412909208.1.2.3.4 conn=wye Kv=0.2200 Kva=75.0 %R=0.670
New Transformer.535612091_535612090 phases=3 windings=2 Xhl=3.770
~ wdg=1 bus=node_425508091.1.2.3 conn=delta Kv=13.8 Kva=75.0 %R=0.670
~ wdg=2 bus=node_412209473.1.2.3.4 conn=wye Kv=0.2200 Kva=75.0 %R=0.670
New Transformer.331366176_331572709 phases=3 windings=2 Xhl=3.770
~ wdg=1 bus=node_425509020.1.2.3 conn=delta Kv=13.8 Kva=75.0 %R=0.670
~ wdg=2 bus=node_412191116.1.2.3.4 conn=wye Kv=0.2200 Kva=75.0 %R=0.670
New Transformer.331366234_331765617 phases=3 windings=2 Xhl=3.770
~ wdg=1 bus=node_428341130.1.2.3 conn=delta Kv=13.8 Kva=75.0 %R=0.670
~ wdg=2 bus=node_460026023.1.2.3.4 conn=wye Kv=0.2200 Kva=75.0 %R=0.670
New Transformer.331366621_331573935 phases=3 windings=2 Xhl=3.770
~ wdg=1 bus=node_425204113.1.2.3 conn=delta Kv=13.8 Kva=75.0 %R=0.670
~ wdg=2 bus=node_502235913.1.2.3.4 conn=wye Kv=0.2200 Kva=75.0 %R=0.670
New Transformer.331366909_331720146 phases=3 windings=2 Xhl=3.770
~ wdg=1 bus=node_428541699.1.2.3 conn=delta Kv=13.8 Kva=75.0 %R=0.670
~ wdg=2 bus=node_412825732.1.2.3.4 conn=wye Kv=0.2200 Kva=75.0 %R=0.670
New Transformer.331366910_1115293603 phases=3 windings=2 Xhl=3.770
~ wdg=1 bus=node_425203604.1.2.3 conn=delta Kv=13.8 Kva=75.0 %R=0.670
~ wdg=2 bus=node_412190375.1.2.3.4 conn=wye Kv=0.2200 Kva=75.0 %R=0.670
New Transformer.331367871_2658879241 phases=3 windings=2 Xhl=3.770
~ wdg=1 bus=node_428342669.1.2.3 conn=delta Kv=13.8 Kva=75.0 %R=0.670
~ wdg=2 bus=node_412943535.1.2.3.4 conn=wye Kv=0.2200 Kva=75.0 %R=0.670
New Transformer.331571527_331721833 phases=3 windings=2 Xhl=3.770
~ wdg=1 bus=node_445007270.1.2.3 conn=delta Kv=13.8 Kva=75.0 %R=0.670
~ wdg=2 bus=node_412208126.1.2.3.4 conn=wye Kv=0.2200 Kva=75.0 %R=0.670
New Transformer.331571468_331765539 phases=3 windings=2 Xhl=3.770
~ wdg=1 bus=node_445006302.1.2.3 conn=delta Kv=13.8 Kva=75.0 %R=0.670
~ wdg=2 bus=node_412191284.1.2.3.4 conn=wye Kv=0.2200 Kva=75.0 %R=0.670
New Transformer.331367235_331765622 phases=3 windings=2 Xhl=3.770
~ wdg=1 bus=node_425677227.1.2.3 conn=delta Kv=13.8 Kva=75.0 %R=0.670
~ wdg=2 bus=node_412193285.1.2.3.4 conn=wye Kv=0.2200 Kva=75.0 %R=0.670
New Transformer.331367000_331729793 phases=3 windings=2 Xhl=3.770
~ wdg=1 bus=node_425201503.1.2.3 conn=delta Kv=13.8 Kva=75.0 %R=0.670
~ wdg=2 bus=node_413010302.1.2.3.4 conn=wye Kv=0.2200 Kva=75.0 %R=0.670
New Transformer.331367136_331729024 phases=3 windings=2 Xhl=3.770
~ wdg=1 bus=node_425509341.1.2.3 conn=delta Kv=13.8 Kva=75.0 %R=0.670
~ wdg=2 bus=node_412984350.1.2.3.4 conn=wye Kv=0.2200 Kva=75.0 %R=0.670
New Transformer.2032573505_2032573504 phases=3 windings=2 Xhl=3.770
~ wdg=1 bus=node_2348955509.1.2.3 conn=delta Kv=13.8 Kva=75.0 %R=0.670
~ wdg=2 bus=node_2349161572.1.2.3.4 conn=wye Kv=0.2200 Kva=75.0 %R=0.670
New Transformer.331367536_528552762 phases=3 windings=2 Xhl=3.770
~ wdg=1 bus=node_425204348.1.2.3 conn=delta Kv=13.8 Kva=75.0 %R=0.670
~ wdg=2 bus=node_412356878.1.2.3.4 conn=wye Kv=0.2200 Kva=75.0 %R=0.670
New Transformer.331367373_331764687 phases=3 windings=2 Xhl=3.770
~ wdg=1 bus=node_439878734.1.2.3 conn=delta Kv=13.8 Kva=75.0 %R=0.670
~ wdg=2 bus=node_412191152.1.2.3.4 conn=wye Kv=0.2200 Kva=75.0 %R=0.670
New Transformer.331367379_331765471 phases=3 windings=2 Xhl=3.770
~ wdg=1 bus=node_427666276.1.2.3 conn=delta Kv=13.8 Kva=75.0 %R=0.670
~ wdg=2 bus=node_412208123.1.2.3.4 conn=wye Kv=0.2200 Kva=75.0 %R=0.670
New Transformer.331367485_2606176347 phases=3 windings=2 Xhl=4.960
~ wdg=1 bus=node_1148314581.1.2.3 conn=delta Kv=13.8 Kva=75.0 %R=0.305
~ wdg=2 bus=node_412611877.1.2.3.4 conn=wye Kv=0.2200 Kva=75.0 %R=0.305
New Transformer.331572371_331720801 phases=3 windings=2 Xhl=3.770
~ wdg=1 bus=node_425203999.1.2.3 conn=delta Kv=13.8 Kva=75.0 %R=0.670
~ wdg=2 bus=node_413057421.1.2.3.4 conn=wye Kv=0.2200 Kva=75.0 %R=0.670
New Transformer.331571775_331720866 phases=3 windings=2 Xhl=3.770
~ wdg=1 bus=node_425508086.1.2.3 conn=delta Kv=13.8 Kva=75.0 %R=0.670
~ wdg=2 bus=node_412190402.1.2.3.4 conn=wye Kv=0.2200 Kva=75.0 %R=0.670
New Transformer.331571683_331732358 phases=3 windings=2 Xhl=3.770
~ wdg=1 bus=node_425204724.1.2.3 conn=delta Kv=13.8 Kva=75.0 %R=0.670
~ wdg=2 bus=node_412207031.1.2.3.4 conn=wye Kv=0.2200 Kva=75.0 %R=0.670
New Transformer.331572121_1001223463 phases=3 windings=2 Xhl=3.770
~ wdg=1 bus=node_445005357.1.2.3 conn=delta Kv=13.8 Kva=75.0 %R=0.670
~ wdg=2 bus=node_412313382.1.2.3.4 conn=wye Kv=0.2200 Kva=75.0 %R=0.670
New Transformer.331572100_331765628 phases=3 windings=2 Xhl=3.770
~ wdg=1 bus=node_425507951.1.2.3 conn=delta Kv=13.8 Kva=75.0 %R=0.670
~ wdg=2 bus=node_412190585.1.2.3.4 conn=wye Kv=0.2200 Kva=75.0 %R=0.670
New Transformer.331572320_331776374 phases=3 windings=2 Xhl=3.770
~ wdg=1 bus=node_425202722.1.2.3 conn=delta Kv=13.8 Kva=75.0 %R=0.670
~ wdg=2 bus=node_412209368.1.2.3.4 conn=wye Kv=0.2200 Kva=75.0 %R=0.670
New Transformer.331571780_331776464 phases=3 windings=2 Xhl=3.770
~ wdg=1 bus=node_428340308.1.2.3 conn=delta Kv=13.8 Kva=75.0 %R=0.670
~ wdg=2 bus=node_412193702.1.2.3.4 conn=wye Kv=0.2200 Kva=75.0 %R=0.670
New Transformer.331367625_1041385283 phases=3 windings=2 Xhl=3.770
~ wdg=1 bus=node_445004878.1.2.3 conn=delta Kv=13.8 Kva=75.0 %R=0.670
~ wdg=2 bus=node_412207505.1.2.3.4 conn=wye Kv=0.2200 Kva=75.0 %R=0.670
New Transformer.331571871_331763702 phases=3 windings=2 Xhl=3.770
~ wdg=1 bus=node_435142002.1.2.3 conn=delta Kv=13.8 Kva=75.0 %R=0.670
~ wdg=2 bus=node_412908260.1.2.3.4 conn=wye Kv=0.2200 Kva=75.0 %R=0.670
New Transformer.331572014_331765316 phases=3 windings=2 Xhl=3.770
~ wdg=1 bus=node_428340632.1.2.3 conn=delta Kv=13.8 Kva=75.0 %R=0.670
~ wdg=2 bus=node_408608107.1.2.3.4 conn=wye Kv=0.2200 Kva=75.0 %R=0.670
New Transformer.331572254_331728886 phases=3 windings=2 Xhl=3.770
~ wdg=1 bus=node_425204079.1.2.3 conn=delta Kv=13.8 Kva=75.0 %R=0.670
~ wdg=2 bus=node_413057433.1.2.3.4 conn=wye Kv=0.2200 Kva=75.0 %R=0.670
New Transformer.331471514_1963895319 phases=3 windings=2 Xhl=3.770
~ wdg=1 bus=node_2281866094.1.2.3 conn=delta Kv=13.8 Kva=75.0 %R=0.670
~ wdg=2 bus=node_2281866070.1.2.3.4 conn=wye Kv=0.2200 Kva=75.0 %R=0.670
New Transformer.331471553_331777672 phases=3 windings=2 Xhl=3.770
~ wdg=1 bus=node_428339834.1.2.3 conn=delta Kv=13.8 Kva=75.0 %R=0.670
~ wdg=2 bus=node_420064126.1.2.3.4 conn=wye Kv=0.2200 Kva=75.0 %R=0.670
New Transformer.331471233_331720962 phases=3 windings=2 Xhl=3.770
~ wdg=1 bus=node_425347251.1.2.3 conn=delta Kv=13.8 Kva=75.0 %R=0.670
~ wdg=2 bus=node_527973106.1.2.3.4 conn=wye Kv=0.2200 Kva=75.0 %R=0.670
New Transformer.331471452_331764635 phases=3 windings=2 Xhl=3.770
~ wdg=1 bus=node_435142991.1.2.3 conn=delta Kv=13.8 Kva=75.0 %R=0.670
~ wdg=2 bus=node_412909040.1.2.3.4 conn=wye Kv=0.2200 Kva=75.0 %R=0.670
New Transformer.331471476_331765631 phases=3 windings=2 Xhl=3.770
~ wdg=1 bus=node_425509146.1.2.3 conn=delta Kv=13.8 Kva=75.0 %R=0.670
~ wdg=2 bus=node_412191944.1.2.3.4 conn=wye Kv=0.2200 Kva=75.0 %R=0.670
New Transformer.331471318_331721913 phases=3 windings=2 Xhl=3.770
~ wdg=1 bus=node_425507346.1.2.3 conn=delta Kv=13.8 Kva=75.0 %R=0.670
~ wdg=2 bus=node_412190414.1.2.3.4 conn=wye Kv=0.2200 Kva=75.0 %R=0.670
New Transformer.331471773_1155451260 phases=3 windings=2 Xhl=3.770
~ wdg=1 bus=node_428341070.1.2.3 conn=delta Kv=13.8 Kva=75.0 %R=0.670
~ wdg=2 bus=node_412191998.1.2.3.4 conn=wye Kv=0.2200 Kva=75.0 %R=0.670
New Transformer.331471807_331765287 phases=3 windings=2 Xhl=3.770
~ wdg=1 bus=node_440990779.1.2.3 conn=delta Kv=13.8 Kva=75.0 %R=0.670
~ wdg=2 bus=node_412352990.1.2.3.4 conn=wye Kv=0.2200 Kva=75.0 %R=0.670
New Transformer.331472141_331766802 phases=3 windings=2 Xhl=3.770
~ wdg=1 bus=node_425677526.1.2.3 conn=delta Kv=13.8 Kva=75.0 %R=0.670
~ wdg=2 bus=node_412987581.1.2.3.4 conn=wye Kv=0.2200 Kva=75.0 %R=0.670
New Transformer.331472638_2404854700 phases=3 windings=2 Xhl=3.770
~ wdg=1 bus=node_427665580.1.2.3 conn=delta Kv=13.8 Kva=75.0 %R=0.670
~ wdg=2 bus=node_412413646.1.2.3.4 conn=wye Kv=0.2200 Kva=75.0 %R=0.670
New Transformer.331472515_331730578 phases=3 windings=2 Xhl=3.770
~ wdg=1 bus=node_427666396.1.2.3 conn=delta Kv=13.8 Kva=75.0 %R=0.670
~ wdg=2 bus=node_412191287.1.2.3.4 conn=wye Kv=0.2200 Kva=75.0 %R=0.670
New Transformer.331472264_331776427 phases=3 windings=2 Xhl=3.770
~ wdg=1 bus=node_428340292.1.2.3 conn=delta Kv=13.8 Kva=75.0 %R=0.670
~ wdg=2 bus=node_412191185.1.2.3.4 conn=wye Kv=0.2200 Kva=75.0 %R=0.670
New Transformer.331472087_331765612 phases=3 windings=2 Xhl=3.770
~ wdg=1 bus=node_440062016.1.2.3 conn=delta Kv=13.8 Kva=75.0 %R=0.670
~ wdg=2 bus=node_412192193.1.2.3.4 conn=wye Kv=0.2200 Kva=75.0 %R=0.670
New Transformer.1824078355_1824078354 phases=3 windings=2 Xhl=3.770
~ wdg=1 bus=node_2201615414.1.2.3 conn=delta Kv=13.8 Kva=75.0 %R=0.670
~ wdg=2 bus=node_2201615402.1.2.3.4 conn=wye Kv=0.2200 Kva=75.0 %R=0.670
New Transformer.331472594_930093369 phases=3 windings=2 Xhl=3.770
~ wdg=1 bus=node_425507160.1.2.3 conn=delta Kv=13.8 Kva=75.0 %R=0.670
~ wdg=2 bus=node_412191011.1.2.3.4 conn=wye Kv=0.2200 Kva=75.0 %R=0.670
New Transformer.331472774_1999891854 phases=3 windings=2 Xhl=3.770
~ wdg=1 bus=node_425080157.1.2.3 conn=delta Kv=13.8 Kva=75.0 %R=0.670
~ wdg=2 bus=node_413012111.1.2.3.4 conn=wye Kv=0.2200 Kva=75.0 %R=0.670
New Transformer.2095046911_2095046910 phases=3 windings=2 Xhl=3.770
~ wdg=1 bus=node_2408070944.1.2.3 conn=delta Kv=13.8 Kva=75.0 %R=0.670
~ wdg=2 bus=node_2408070964.1.2.3.4 conn=wye Kv=0.2200 Kva=75.0 %R=0.670
New Transformer.331472928_331776462 phases=3 windings=2 Xhl=3.770
~ wdg=1 bus=node_445005127.1.2.3 conn=delta Kv=13.8 Kva=75.0 %R=0.670
~ wdg=2 bus=node_412191254.1.2.3.4 conn=wye Kv=0.2200 Kva=75.0 %R=0.670
New Transformer.331472948_331778144 phases=3 windings=2 Xhl=3.770
~ wdg=1 bus=node_439878904.1.2.3 conn=delta Kv=13.8 Kva=75.0 %R=0.670
~ wdg=2 bus=node_412620224.1.2.3.4 conn=wye Kv=0.2200 Kva=75.0 %R=0.670
New Transformer.331473435_331723373 phases=3 windings=2 Xhl=3.770
~ wdg=1 bus=node_425507516.1.2.3 conn=delta Kv=13.8 Kva=75.0 %R=0.670
~ wdg=2 bus=node_412193687.1.2.3.4 conn=wye Kv=0.2200 Kva=75.0 %R=0.670
New Transformer.331473086_331732197 phases=3 windings=2 Xhl=3.770
~ wdg=1 bus=node_445005043.1.2.3 conn=delta Kv=13.8 Kva=75.0 %R=0.670
~ wdg=2 bus=node_486163785.1.2.3.4 conn=wye Kv=0.2200 Kva=75.0 %R=0.670
New Transformer.331472892_331732285 phases=3 windings=2 Xhl=3.770
~ wdg=1 bus=node_439879978.1.2.3 conn=delta Kv=13.8 Kva=75.0 %R=0.670
~ wdg=2 bus=node_412192667.1.2.3.4 conn=wye Kv=0.2200 Kva=75.0 %R=0.670
New Transformer.331472900_331778805 phases=3 windings=2 Xhl=3.770
~ wdg=1 bus=node_425508140.1.2.3 conn=delta Kv=13.8 Kva=75.0 %R=0.670
~ wdg=2 bus=node_412193732.1.2.3.4 conn=wye Kv=0.2200 Kva=75.0 %R=0.670
New Transformer.331473526_331778691 phases=3 windings=2 Xhl=3.770
~ wdg=1 bus=node_425200949.1.2.3 conn=delta Kv=13.8 Kva=75.0 %R=0.670
~ wdg=2 bus=node_408340590.1.2.3.4 conn=wye Kv=0.2200 Kva=75.0 %R=0.670
New Transformer.331473628_331730784 phases=3 windings=2 Xhl=3.770
~ wdg=1 bus=node_425346845.1.2.3 conn=delta Kv=13.8 Kva=75.0 %R=0.670
~ wdg=2 bus=node_412163777.1.2.3.4 conn=wye Kv=0.2200 Kva=75.0 %R=0.670
New Transformer.331473704_331729004 phases=3 windings=2 Xhl=3.770
~ wdg=1 bus=node_435141917.1.2.3 conn=delta Kv=13.8 Kva=75.0 %R=0.670
~ wdg=2 bus=node_412986009.1.2.3.4 conn=wye Kv=0.2200 Kva=75.0 %R=0.670
New Transformer.331473620_331766758 phases=3 windings=2 Xhl=3.770
~ wdg=1 bus=node_429252235.1.2.3 conn=delta Kv=13.8 Kva=75.0 %R=0.670
~ wdg=2 bus=node_413012816.1.2.3.4 conn=wye Kv=0.2200 Kva=75.0 %R=0.670
New Transformer.331473602_331729791 phases=3 windings=2 Xhl=3.770
~ wdg=1 bus=node_425509101.1.2.3 conn=delta Kv=13.8 Kva=75.0 %R=0.670
~ wdg=2 bus=node_413010260.1.2.3.4 conn=wye Kv=0.2200 Kva=75.0 %R=0.670
New Transformer.331474038_331572600 phases=3 windings=2 Xhl=3.770
~ wdg=1 bus=node_425505453.1.2.3 conn=delta Kv=13.8 Kva=75.0 %R=0.670
~ wdg=2 bus=node_420431994.1.2.3.4 conn=wye Kv=0.2200 Kva=75.0 %R=0.670
New Transformer.331474023_331721005 phases=3 windings=2 Xhl=3.770
~ wdg=1 bus=node_427666266.1.2.3 conn=delta Kv=13.8 Kva=75.0 %R=0.670
~ wdg=2 bus=node_412371230.1.2.3.4 conn=wye Kv=0.2200 Kva=75.0 %R=0.670
New Transformer.331474594_331776430 phases=3 windings=2 Xhl=3.770
~ wdg=1 bus=node_425506508.1.2.3 conn=delta Kv=13.8 Kva=75.0 %R=0.670
~ wdg=2 bus=node_412163702.1.2.3.4 conn=wye Kv=0.2200 Kva=75.0 %R=0.670
New Transformer.331474700_331730878 phases=3 windings=2 Xhl=3.770
~ wdg=1 bus=node_425507756.1.2.3 conn=delta Kv=13.8 Kva=75.0 %R=0.670
~ wdg=2 bus=node_412190549.1.2.3.4 conn=wye Kv=0.2200 Kva=75.0 %R=0.670
New Transformer.331474989_331732236 phases=3 windings=2 Xhl=3.770
~ wdg=1 bus=node_425202372.1.2.3 conn=delta Kv=13.8 Kva=75.0 %R=0.670
~ wdg=2 bus=node_412163792.1.2.3.4 conn=wye Kv=0.2200 Kva=75.0 %R=0.670
New Transformer.331474972_331721981 phases=3 windings=2 Xhl=3.770
~ wdg=1 bus=node_425506661.1.2.3 conn=delta Kv=13.8 Kva=75.0 %R=0.670
~ wdg=2 bus=node_412887976.1.2.3.4 conn=wye Kv=0.2200 Kva=75.0 %R=0.670
New Transformer.331472966_331721391 phases=3 windings=2 Xhl=3.770
~ wdg=1 bus=node_428340052.1.2.3 conn=delta Kv=13.8 Kva=75.0 %R=0.670
~ wdg=2 bus=node_412163729.1.2.3.4 conn=wye Kv=0.2200 Kva=75.0 %R=0.670
New Transformer.331473102_331763612 phases=3 windings=2 Xhl=3.770
~ wdg=1 bus=node_440226878.1.2.3 conn=delta Kv=13.8 Kva=75.0 %R=0.670
~ wdg=2 bus=node_412209380.1.2.3.4 conn=wye Kv=0.2200 Kva=75.0 %R=0.670
New Transformer.331475251_331720893 phases=3 windings=2 Xhl=3.770
~ wdg=1 bus=node_436150123.1.2.3 conn=delta Kv=13.8 Kva=75.0 %R=0.670
~ wdg=2 bus=node_410083690.1.2.3.4 conn=wye Kv=0.2200 Kva=75.0 %R=0.670
New Transformer.331475257_331723354 phases=3 windings=2 Xhl=3.770
~ wdg=1 bus=node_444952213.1.2.3 conn=delta Kv=13.8 Kva=75.0 %R=0.670
~ wdg=2 bus=node_412191236.1.2.3.4 conn=wye Kv=0.2200 Kva=75.0 %R=0.670
New Transformer.331475131_331732280 phases=3 windings=2 Xhl=3.770
~ wdg=1 bus=node_445005141.1.2.3 conn=delta Kv=13.8 Kva=75.0 %R=0.670
~ wdg=2 bus=node_412163243.1.2.3.4 conn=wye Kv=0.2200 Kva=75.0 %R=0.670
New Transformer.331570600_331776359 phases=3 windings=2 Xhl=3.770
~ wdg=1 bus=node_439486554.1.2.3 conn=delta Kv=13.8 Kva=75.0 %R=0.670
~ wdg=2 bus=node_412207568.1.2.3.4 conn=wye Kv=0.2200 Kva=75.0 %R=0.670
New Transformer.331570410_331572628 phases=3 windings=2 Xhl=3.770
~ wdg=1 bus=node_445005986.1.2.3 conn=delta Kv=13.8 Kva=75.0 %R=0.670
~ wdg=2 bus=node_412190804.1.2.3.4 conn=wye Kv=0.2200 Kva=75.0 %R=0.670
New Transformer.331570209_331776465 phases=3 windings=2 Xhl=3.770
~ wdg=1 bus=node_435141168.1.2.3 conn=delta Kv=13.8 Kva=75.0 %R=0.670
~ wdg=2 bus=node_412192913.1.2.3.4 conn=wye Kv=0.2200 Kva=75.0 %R=0.670
New Transformer.331569856_331764600 phases=3 windings=2 Xhl=3.770
~ wdg=1 bus=node_430393680.1.2.3 conn=delta Kv=13.8 Kva=75.0 %R=0.670
~ wdg=2 bus=node_500788690.1.2.3.4 conn=wye Kv=0.2200 Kva=75.0 %R=0.670
New Transformer.331570166_331572616 phases=3 windings=2 Xhl=3.770
~ wdg=1 bus=node_425347575.1.2.3 conn=delta Kv=13.8 Kva=75.0 %R=0.670
~ wdg=2 bus=node_412190249.1.2.3.4 conn=wye Kv=0.2200 Kva=75.0 %R=0.670
New Transformer.331570703_331729861 phases=3 windings=2 Xhl=3.770
~ wdg=1 bus=node_435143216.1.2.3 conn=delta Kv=13.8 Kva=75.0 %R=0.670
~ wdg=2 bus=node_412941507.1.2.3.4 conn=wye Kv=0.2200 Kva=75.0 %R=0.670
New Transformer.331474481_331729888 phases=3 windings=2 Xhl=3.770
~ wdg=1 bus=node_428541314.1.2.3 conn=delta Kv=13.8 Kva=75.0 %R=0.670
~ wdg=2 bus=node_412847276.1.2.3.4 conn=wye Kv=0.2200 Kva=75.0 %R=0.670
New Transformer.331570027_2478226278 phases=3 windings=2 Xhl=3.770
~ wdg=1 bus=node_425201727.1.2.3 conn=delta Kv=13.8 Kva=75.0 %R=0.670
~ wdg=2 bus=node_412191200.1.2.3.4 conn=wye Kv=0.2200 Kva=75.0 %R=0.670
New Transformer.331570387_331764271 phases=3 windings=2 Xhl=3.770
~ wdg=1 bus=node_425347081.1.2.3 conn=delta Kv=13.8 Kva=75.0 %R=0.670
~ wdg=2 bus=node_486087242.1.2.3.4 conn=wye Kv=0.2200 Kva=75.0 %R=0.670
New Transformer.331474999_331721960 phases=3 windings=2 Xhl=3.770
~ wdg=1 bus=node_425202056.1.2.3 conn=delta Kv=13.8 Kva=75.0 %R=0.670
~ wdg=2 bus=node_412193192.1.2.3.4 conn=wye Kv=0.2200 Kva=75.0 %R=0.670
New Transformer.331570475_1829412218 phases=3 windings=2 Xhl=3.770
~ wdg=1 bus=node_1056689015.1.2.3 conn=delta Kv=13.8 Kva=75.0 %R=0.670
~ wdg=2 bus=node_1114043950.1.2.3.4 conn=wye Kv=0.2200 Kva=75.0 %R=0.670
New Transformer.331571018_2567412718 phases=3 windings=2 Xhl=3.770
~ wdg=1 bus=node_2714980320.1.2.3 conn=delta Kv=13.8 Kva=75.0 %R=0.670
~ wdg=2 bus=node_2714980329.1.2.3.4 conn=wye Kv=0.2200 Kva=75.0 %R=0.670
New Transformer.326105326_1790404818 phases=3 windings=2 Xhl=3.770
~ wdg=1 bus=node_428104348.1.2.3 conn=delta Kv=13.8 Kva=75.0 %R=0.670
~ wdg=2 bus=node_408270255.1.2.3.4 conn=wye Kv=0.2200 Kva=75.0 %R=0.670
New Transformer.326107563_326707894 phases=3 windings=2 Xhl=3.770
~ wdg=1 bus=node_427620251.1.2.3 conn=delta Kv=13.8 Kva=75.0 %R=0.670
~ wdg=2 bus=node_409266835.1.2.3.4 conn=wye Kv=0.2200 Kva=75.0 %R=0.670
New Transformer.2633742433_2633742434 phases=3 windings=2 Xhl=3.770
~ wdg=1 bus=node_2791431517.1.2.3 conn=delta Kv=13.8 Kva=75.0 %R=0.670
~ wdg=2 bus=node_2791431480.1.2.3.4 conn=wye Kv=0.2200 Kva=75.0 %R=0.670
New Transformer.2508773997_2508773998 phases=3 windings=2 Xhl=3.770
~ wdg=1 bus=node_2665269080.1.2.3 conn=delta Kv=13.8 Kva=75.0 %R=0.670
~ wdg=2 bus=node_2665269009.1.2.3.4 conn=wye Kv=0.2200 Kva=75.0 %R=0.670
New Transformer.2573224927_2573224928 phases=3 windings=2 Xhl=3.770
~ wdg=1 bus=node_2892434405.1.2.3 conn=delta Kv=13.8 Kva=75.0 %R=0.670
~ wdg=2 bus=node_2892434354.1.2.3.4 conn=wye Kv=0.2200 Kva=75.0 %R=0.670
New Transformer.2543616367_2543616368 phases=3 windings=2 Xhl=4.960
~ wdg=1 bus=node_2815397543.1.2.3 conn=delta Kv=13.8 Kva=75.0 %R=0.305
~ wdg=2 bus=node_2815397557.1.2.3.4 conn=wye Kv=0.2200 Kva=75.0 %R=0.305
New Transformer.2606312369_2606312368 phases=3 windings=2 Xhl=4.960
~ wdg=1 bus=node_2759651426.1.2.3 conn=delta Kv=13.8 Kva=75.0 %R=0.305
~ wdg=2 bus=node_2759651412.1.2.3.4 conn=wye Kv=0.2200 Kva=75.0 %R=0.305
New Transformer.2621191700_2621191699 phases=3 windings=2 Xhl=3.770
~ wdg=1 bus=node_2776077287.1.2.3 conn=delta Kv=13.8 Kva=75.0 %R=0.670
~ wdg=2 bus=node_2776077271.1.2.3.4 conn=wye Kv=0.2200 Kva=75.0 %R=0.670
New Transformer.326383717_326786791 phases=3 windings=2 Xhl=3.700
~ wdg=1 bus=node_425217469.1.2.3 conn=delta Kv=13.8 Kva=45.0 %R=0.760
~ wdg=2 bus=node_408270006.1.2.3.4 conn=wye Kv=0.2200 Kva=45.0 %R=0.760
New Transformer.326384272_326723150 phases=3 windings=2 Xhl=3.700
~ wdg=1 bus=node_444672442.1.2.3 conn=delta Kv=13.8 Kva=45.0 %R=0.760
~ wdg=2 bus=node_408270120.1.2.3.4 conn=wye Kv=0.2200 Kva=45.0 %R=0.760
New Transformer.326384998_326767683 phases=3 windings=2 Xhl=3.700
~ wdg=1 bus=node_428104549.1.2.3 conn=delta Kv=13.8 Kva=45.0 %R=0.760
~ wdg=2 bus=node_408340554.1.2.3.4 conn=wye Kv=0.2200 Kva=45.0 %R=0.760
New Transformer.326386311_326747419 phases=3 windings=2 Xhl=3.700
~ wdg=1 bus=node_427622075.1.2.3 conn=delta Kv=13.8 Kva=45.0 %R=0.760
~ wdg=2 bus=node_408667259.1.2.3.4 conn=wye Kv=0.2200 Kva=45.0 %R=0.760
New Transformer.325953826_326706977 phases=3 windings=2 Xhl=3.700
~ wdg=1 bus=node_429736686.1.2.3 conn=delta Kv=13.8 Kva=45.0 %R=0.760
~ wdg=2 bus=node_409895111.1.2.3.4 conn=wye Kv=0.2200 Kva=45.0 %R=0.760
New Transformer.325954956_326789483 phases=3 windings=2 Xhl=3.700
~ wdg=1 bus=node_428104238.1.2.3 conn=delta Kv=13.8 Kva=45.0 %R=0.760
~ wdg=2 bus=node_408270468.1.2.3.4 conn=wye Kv=0.2200 Kva=45.0 %R=0.760
New Transformer.325954961_326704948 phases=3 windings=2 Xhl=3.700
~ wdg=1 bus=node_427621420.1.2.3 conn=delta Kv=13.8 Kva=45.0 %R=0.760
~ wdg=2 bus=node_408270837.1.2.3.4 conn=wye Kv=0.2200 Kva=45.0 %R=0.760
New Transformer.325955390_326723866 phases=3 windings=2 Xhl=3.700
~ wdg=1 bus=node_435453116.1.2.3 conn=delta Kv=13.8 Kva=45.0 %R=0.760
~ wdg=2 bus=node_408782001.1.2.3.4 conn=wye Kv=0.2200 Kva=45.0 %R=0.760
New Transformer.2214912429_2214912443 phases=3 windings=2 Xhl=3.700
~ wdg=1 bus=node_2524533523.1.2.3 conn=delta Kv=13.8 Kva=45.0 %R=0.760
~ wdg=2 bus=node_2524533516.1.2.3.4 conn=wye Kv=0.2200 Kva=45.0 %R=0.760
New Transformer.325956357_326745279 phases=3 windings=2 Xhl=3.700
~ wdg=1 bus=node_425368748.1.2.3 conn=delta Kv=13.8 Kva=45.0 %R=0.760
~ wdg=2 bus=node_408398056.1.2.3.4 conn=wye Kv=0.2200 Kva=45.0 %R=0.760
New Transformer.2214910501_2214910502 phases=3 windings=2 Xhl=3.700
~ wdg=1 bus=node_2520231458.1.2.3 conn=delta Kv=13.8 Kva=45.0 %R=0.760
~ wdg=2 bus=node_2520230930.1.2.3.4 conn=wye Kv=0.2200 Kva=45.0 %R=0.760
New Transformer.1045478060_1045478059 phases=3 windings=2 Xhl=3.700
~ wdg=1 bus=node_1312097043.1.2.3 conn=delta Kv=13.8 Kva=45.0 %R=0.760
~ wdg=2 bus=node_459910684.1.2.3.4 conn=wye Kv=0.2200 Kva=45.0 %R=0.760
New Transformer.1045478062_1045478063 phases=3 windings=2 Xhl=3.700
~ wdg=1 bus=node_1312096800.1.2.3 conn=delta Kv=13.8 Kva=45.0 %R=0.760
~ wdg=2 bus=node_1312096492.1.2.3.4 conn=wye Kv=0.2200 Kva=45.0 %R=0.760
New Transformer.325956476_326722491 phases=3 windings=2 Xhl=3.700
~ wdg=1 bus=node_429736810.1.2.3 conn=delta Kv=13.8 Kva=45.0 %R=0.760
~ wdg=2 bus=node_408341403.1.2.3.4 conn=wye Kv=0.2200 Kva=45.0 %R=0.760
New Transformer.596071626_2686949216 phases=3 windings=2 Xhl=3.700
~ wdg=1 bus=node_444672107.1.2.3 conn=delta Kv=13.8 Kva=45.0 %R=0.760
~ wdg=2 bus=node_454490434.1.2.3.4 conn=wye Kv=0.2200 Kva=45.0 %R=0.760
New Transformer.1075204793_1075204792 phases=3 windings=2 Xhl=3.700
~ wdg=1 bus=node_1342248942.1.2.3 conn=delta Kv=13.8 Kva=45.0 %R=0.760
~ wdg=2 bus=node_465347444.1.2.3.4 conn=wye Kv=0.2200 Kva=45.0 %R=0.760
New Transformer.1068047114_1068047116 phases=3 windings=2 Xhl=3.700
~ wdg=1 bus=node_1335142941.1.2.3 conn=delta Kv=13.8 Kva=45.0 %R=0.760
~ wdg=2 bus=node_1335143895.1.2.3.4 conn=wye Kv=0.2200 Kva=45.0 %R=0.760
New Transformer.1068047118_1068047119 phases=3 windings=2 Xhl=3.700
~ wdg=1 bus=node_1335143260.1.2.3 conn=delta Kv=13.8 Kva=45.0 %R=0.760
~ wdg=2 bus=node_1335144015.1.2.3.4 conn=wye Kv=0.2200 Kva=45.0 %R=0.760
New Transformer.1068047121_1068047122 phases=3 windings=2 Xhl=3.700
~ wdg=1 bus=node_1335143267.1.2.3 conn=delta Kv=13.8 Kva=45.0 %R=0.760
~ wdg=2 bus=node_1335144392.1.2.3.4 conn=wye Kv=0.2200 Kva=45.0 %R=0.760
New Transformer.1068047124_1068047125 phases=3 windings=2 Xhl=3.700
~ wdg=1 bus=node_1335143370.1.2.3 conn=delta Kv=13.8 Kva=45.0 %R=0.760
~ wdg=2 bus=node_1335144794.1.2.3.4 conn=wye Kv=0.2200 Kva=45.0 %R=0.760
New Transformer.1068047127_1068047128 phases=3 windings=2 Xhl=3.700
~ wdg=1 bus=node_1335143398.1.2.3 conn=delta Kv=13.8 Kva=45.0 %R=0.760
~ wdg=2 bus=node_1335145096.1.2.3.4 conn=wye Kv=0.2200 Kva=45.0 %R=0.760
New Transformer.1068047130_1068047131 phases=3 windings=2 Xhl=3.700
~ wdg=1 bus=node_1335143430.1.2.3 conn=delta Kv=13.8 Kva=45.0 %R=0.760
~ wdg=2 bus=node_1335145407.1.2.3.4 conn=wye Kv=0.2200 Kva=45.0 %R=0.760
New Transformer.1068047133_1068047134 phases=3 windings=2 Xhl=3.700
~ wdg=1 bus=node_1335145586.1.2.3 conn=delta Kv=13.8 Kva=45.0 %R=0.760
~ wdg=2 bus=node_1335145670.1.2.3.4 conn=wye Kv=0.2200 Kva=45.0 %R=0.760
New Transformer.1060879948_1060879949 phases=3 windings=2 Xhl=3.700
~ wdg=1 bus=node_1327662654.1.2.3 conn=delta Kv=13.8 Kva=45.0 %R=0.760
~ wdg=2 bus=node_1116996051.1.2.3.4 conn=wye Kv=0.2200 Kva=45.0 %R=0.760
New Transformer.1060880447_1060880468 phases=3 windings=2 Xhl=3.700
~ wdg=1 bus=node_1327662056.1.2.3 conn=delta Kv=13.8 Kva=45.0 %R=0.760
~ wdg=2 bus=node_1150697718.1.2.3.4 conn=wye Kv=0.2200 Kva=45.0 %R=0.760
New Transformer.1063243520_1063243519 phases=3 windings=2 Xhl=3.700
~ wdg=1 bus=node_1330211148.1.2.3 conn=delta Kv=13.8 Kva=45.0 %R=0.760
~ wdg=2 bus=node_1330211316.1.2.3.4 conn=wye Kv=0.2200 Kva=45.0 %R=0.760
New Transformer.1063243589_1063243588 phases=3 windings=2 Xhl=3.700
~ wdg=1 bus=node_1330211225.1.2.3 conn=delta Kv=13.8 Kva=45.0 %R=0.760
~ wdg=2 bus=node_1330211096.1.2.3.4 conn=wye Kv=0.2200 Kva=45.0 %R=0.760
New Transformer.1060880480_1060880485 phases=3 windings=2 Xhl=3.700
~ wdg=1 bus=node_1327662106.1.2.3 conn=delta Kv=13.8 Kva=45.0 %R=0.760
~ wdg=2 bus=node_1150697810.1.2.3.4 conn=wye Kv=0.2200 Kva=45.0 %R=0.760
New Transformer.1060880518_1060880539 phases=3 windings=2 Xhl=3.700
~ wdg=1 bus=node_1327661999.1.2.3 conn=delta Kv=13.8 Kva=45.0 %R=0.760
~ wdg=2 bus=node_1150697914.1.2.3.4 conn=wye Kv=0.2200 Kva=45.0 %R=0.760
New Transformer.1060880578_1060880589 phases=3 windings=2 Xhl=3.700
~ wdg=1 bus=node_1327662711.1.2.3 conn=delta Kv=13.8 Kva=45.0 %R=0.760
~ wdg=2 bus=node_1150698032.1.2.3.4 conn=wye Kv=0.2200 Kva=45.0 %R=0.760
New Transformer.1060880777_1060880793 phases=3 windings=2 Xhl=3.700
~ wdg=1 bus=node_1327663068.1.2.3 conn=delta Kv=13.8 Kva=45.0 %R=0.760
~ wdg=2 bus=node_1150698179.1.2.3.4 conn=wye Kv=0.2200 Kva=45.0 %R=0.760
New Transformer.1060880811_1060880831 phases=3 windings=2 Xhl=3.700
~ wdg=1 bus=node_1327662995.1.2.3 conn=delta Kv=13.8 Kva=45.0 %R=0.760
~ wdg=2 bus=node_1150698244.1.2.3.4 conn=wye Kv=0.2200 Kva=45.0 %R=0.760
New Transformer.1060880865_1060880881 phases=3 windings=2 Xhl=3.700
~ wdg=1 bus=node_1327663101.1.2.3 conn=delta Kv=13.8 Kva=45.0 %R=0.760
~ wdg=2 bus=node_1327662548.1.2.3.4 conn=wye Kv=0.2200 Kva=45.0 %R=0.760
New Transformer.1060880896_1060880901 phases=3 windings=2 Xhl=3.700
~ wdg=1 bus=node_1327663140.1.2.3 conn=delta Kv=13.8 Kva=45.0 %R=0.760
~ wdg=2 bus=node_1327662278.1.2.3.4 conn=wye Kv=0.2200 Kva=45.0 %R=0.760
New Transformer.330773024_331721910 phases=3 windings=2 Xhl=3.700
~ wdg=1 bus=node_425347041.1.2.3 conn=delta Kv=13.8 Kva=45.0 %R=0.760
~ wdg=2 bus=node_412190198.1.2.3.4 conn=wye Kv=0.2200 Kva=45.0 %R=0.760
New Transformer.2361669992_2361669993 phases=3 windings=2 Xhl=3.700
~ wdg=1 bus=node_2536685012.1.2.3 conn=delta Kv=13.8 Kva=45.0 %R=0.760
~ wdg=2 bus=node_459357085.1.2.3.4 conn=wye Kv=0.2200 Kva=45.0 %R=0.760
New Transformer.1093239557_1093239556 phases=3 windings=2 Xhl=3.700
~ wdg=1 bus=node_429736756.1.2.3 conn=delta Kv=13.8 Kva=45.0 %R=0.760
~ wdg=2 bus=node_462564824.1.2.3.4 conn=wye Kv=0.2200 Kva=45.0 %R=0.760
New Transformer.2373761851_2373761852 phases=3 windings=2 Xhl=3.700
~ wdg=1 bus=node_445005196.1.2.3 conn=delta Kv=13.8 Kva=45.0 %R=0.760
~ wdg=2 bus=node_459460812.1.2.3.4 conn=wye Kv=0.2200 Kva=45.0 %R=0.760
New Transformer.1111837024_1111837023 phases=3 windings=2 Xhl=3.700
~ wdg=1 bus=node_1380942093.1.2.3 conn=delta Kv=13.8 Kva=45.0 %R=0.760
~ wdg=2 bus=node_1380942078.1.2.3.4 conn=wye Kv=0.2200 Kva=45.0 %R=0.760
New Transformer.330773932_331765444 phases=3 windings=2 Xhl=3.700
~ wdg=1 bus=node_425506850.1.2.3 conn=delta Kv=13.8 Kva=45.0 %R=0.760
~ wdg=2 bus=node_412193756.1.2.3.4 conn=wye Kv=0.2200 Kva=45.0 %R=0.760
New Transformer.330772710_331765538 phases=3 windings=2 Xhl=3.700
~ wdg=1 bus=node_425203575.1.2.3 conn=delta Kv=13.8 Kva=45.0 %R=0.760
~ wdg=2 bus=node_412190342.1.2.3.4 conn=wye Kv=0.2200 Kva=45.0 %R=0.760
New Transformer.330772863_331723346 phases=3 windings=2 Xhl=3.700
~ wdg=1 bus=node_439878524.1.2.3 conn=delta Kv=13.8 Kva=45.0 %R=0.760
~ wdg=2 bus=node_412190291.1.2.3.4 conn=wye Kv=0.2200 Kva=45.0 %R=0.760
New Transformer.330772328_2680933608 phases=3 windings=2 Xhl=3.700
~ wdg=1 bus=node_440225448.1.2.3 conn=delta Kv=13.8 Kva=45.0 %R=0.760
~ wdg=2 bus=node_412192964.1.2.3.4 conn=wye Kv=0.2200 Kva=45.0 %R=0.760
New Transformer.330773292_881785782 phases=3 windings=2 Xhl=3.700
~ wdg=1 bus=node_425346955.1.2.3 conn=delta Kv=13.8 Kva=45.0 %R=0.760
~ wdg=2 bus=node_412190192.1.2.3.4 conn=wye Kv=0.2200 Kva=45.0 %R=0.760
New Transformer.330773249_1069725574 phases=3 windings=2 Xhl=3.700
~ wdg=1 bus=node_435143151.1.2.3 conn=delta Kv=13.8 Kva=45.0 %R=0.760
~ wdg=2 bus=node_412193150.1.2.3.4 conn=wye Kv=0.2200 Kva=45.0 %R=0.760
New Transformer.330773096_331729937 phases=3 windings=2 Xhl=3.700
~ wdg=1 bus=node_435142367.1.2.3 conn=delta Kv=13.8 Kva=45.0 %R=0.760
~ wdg=2 bus=node_412888087.1.2.3.4 conn=wye Kv=0.2200 Kva=45.0 %R=0.760
New Transformer.330773363_331765540 phases=3 windings=2 Xhl=3.700
~ wdg=1 bus=node_427665746.1.2.3 conn=delta Kv=13.8 Kva=45.0 %R=0.760
~ wdg=2 bus=node_412190762.1.2.3.4 conn=wye Kv=0.2200 Kva=45.0 %R=0.760
New Transformer.330772515_1064753554 phases=3 windings=2 Xhl=3.700
~ wdg=1 bus=node_425677411.1.2.3 conn=delta Kv=13.8 Kva=45.0 %R=0.760
~ wdg=2 bus=node_413012159.1.2.3.4 conn=wye Kv=0.2200 Kva=45.0 %R=0.760
New Transformer.330772791_331777739 phases=3 windings=2 Xhl=3.700
~ wdg=1 bus=node_428541609.1.2.3 conn=delta Kv=13.8 Kva=45.0 %R=0.760
~ wdg=2 bus=node_412944285.1.2.3.4 conn=wye Kv=0.2200 Kva=45.0 %R=0.760
New Transformer.330772533_731723397 phases=3 windings=2 Xhl=3.700
~ wdg=1 bus=node_428341031.1.2.3 conn=delta Kv=13.8 Kva=45.0 %R=0.760
~ wdg=2 bus=node_412191899.1.2.3.4 conn=wye Kv=0.2200 Kva=45.0 %R=0.760
New Transformer.1091938641_1091938640 phases=3 windings=2 Xhl=3.700
~ wdg=1 bus=node_1359549277.1.2.3 conn=delta Kv=13.8 Kva=45.0 %R=0.760
~ wdg=2 bus=node_1359549262.1.2.3.4 conn=wye Kv=0.2200 Kva=45.0 %R=0.760
New Transformer.1091938813_1091938812 phases=3 windings=2 Xhl=3.700
~ wdg=1 bus=node_1359549620.1.2.3 conn=delta Kv=13.8 Kva=45.0 %R=0.760
~ wdg=2 bus=node_1359549631.1.2.3.4 conn=wye Kv=0.2200 Kva=45.0 %R=0.760
New Transformer.330772922_331721901 phases=3 windings=2 Xhl=3.700
~ wdg=1 bus=node_425347821.1.2.3 conn=delta Kv=13.8 Kva=45.0 %R=0.760
~ wdg=2 bus=node_412191308.1.2.3.4 conn=wye Kv=0.2200 Kva=45.0 %R=0.760
New Transformer.330774869_331778828 phases=3 windings=2 Xhl=3.700
~ wdg=1 bus=node_425506750.1.2.3 conn=delta Kv=13.8 Kva=45.0 %R=0.760
~ wdg=2 bus=node_412190990.1.2.3.4 conn=wye Kv=0.2200 Kva=45.0 %R=0.760
New Transformer.330774219_331729743 phases=3 windings=2 Xhl=3.700
~ wdg=1 bus=node_424517301.1.2.3 conn=delta Kv=13.8 Kva=45.0 %R=0.760
~ wdg=2 bus=node_413009837.1.2.3.4 conn=wye Kv=0.2200 Kva=45.0 %R=0.760
New Transformer.330774326_331778813 phases=3 windings=2 Xhl=3.700
~ wdg=1 bus=node_425506611.1.2.3 conn=delta Kv=13.8 Kva=45.0 %R=0.760
~ wdg=2 bus=node_412207220.1.2.3.4 conn=wye Kv=0.2200 Kva=45.0 %R=0.760
New Transformer.1123389247_1123389246 phases=3 windings=2 Xhl=3.700
~ wdg=1 bus=node_1392661901.1.2.3 conn=delta Kv=13.8 Kva=45.0 %R=0.760
~ wdg=2 bus=node_1392661324.1.2.3.4 conn=wye Kv=0.2200 Kva=45.0 %R=0.760
New Transformer.330774465_331765615 phases=3 windings=2 Xhl=3.700
~ wdg=1 bus=node_425508135.1.2.3 conn=delta Kv=13.8 Kva=45.0 %R=0.760
~ wdg=2 bus=node_412193735.1.2.3.4 conn=wye Kv=0.2200 Kva=45.0 %R=0.760
New Transformer.792569446_792569445 phases=3 windings=2 Xhl=3.700
...